--Link1--
%nprocshared=16
%chk=/home/sortiz/5-HETE_resp/5-HETE_resp.chk
%mem=2GB
#HF/6-31G* SCF=tight Test Pop=MK iop(6/33=2) iop(6/42=6) opt
# iop(6/50=1)

Amber RESP parametrization of ligand 5-HETE

-1   1
    C    9.4160000000       -2.2310000000        0.4470000000     
    H    9.2770000000       -3.0990000000        1.1040000000     
    H    9.6640000000       -1.3730000000        1.0820000000     
    H   10.2830000000       -2.4330000000       -0.1920000000     
    C    8.1570000000       -1.9600000000       -0.3840000000     
    H    7.9550000000       -2.8230000000       -1.0340000000     
    H    8.3380000000       -1.1090000000       -1.0560000000     
    C    6.9150000000       -1.6720000000        0.4700000000     
    H    7.1180000000       -0.8090000000        1.1220000000     
    H    6.7330000000       -2.5240000000        1.1410000000     
    C    5.6510000000       -1.3980000000       -0.3550000000     
    H    5.4460000000       -2.2610000000       -1.0050000000     
    H    5.8260000000       -0.5460000000       -1.0260000000     
    C    4.4070000000       -1.1100000000        0.5090000000     
    H    4.6020000000       -0.2380000000        1.1440000000     
    H    4.2550000000       -1.9600000000        1.1920000000     
    C    3.1580000000       -0.9170000000       -0.3100000000     
    H    2.8980000000       -1.7620000000       -0.9490000000     
    C    2.3400000000        0.1460000000       -0.3460000000     
    H    1.4790000000        0.0980000000       -1.0120000000     
    C    2.4560000000        1.4370000000        0.4320000000     
    H    3.3170000000        1.3990000000        1.1110000000     
    H    1.5680000000        1.5500000000        1.0650000000     
    C    2.6030000000        2.6320000000       -0.4840000000     
    H    3.4920000000        2.6090000000       -1.1150000000     
    C    1.7720000000        3.6740000000       -0.6240000000     
    H    2.0440000000        4.4360000000       -1.3560000000     
    C    0.4710000000        3.9380000000        0.1010000000     
    H    0.5860000000        4.8670000000        0.6840000000     
    H    0.2580000000        3.1490000000        0.8250000000     
    C   -0.6820000000        4.1140000000       -0.8600000000     
    H   -0.5190000000        4.8530000000       -1.6450000000     
    C   -1.8610000000        3.4590000000       -0.8550000000     
    H   -2.5770000000        3.7130000000       -1.6370000000     
    C   -2.3090000000        2.4360000000        0.0820000000     
    H   -1.6300000000        2.1390000000        0.8810000000     
    C   -3.5100000000        1.8290000000        0.0070000000     
    H   -4.2110000000        2.1060000000       -0.7820000000     
    C   -4.0000000000        0.7690000000        0.9550000000     
    H   -3.2150000000        0.5660000000        1.7040000000     
    C   -4.3500000000       -0.5350000000        0.2340000000     
    H   -5.1240000000       -0.3560000000       -0.5200000000     
    H   -3.4430000000       -0.8600000000       -0.2990000000     
    C   -4.8310000000       -1.6630000000        1.1580000000     
    H   -4.1640000000       -1.7220000000        2.0350000000     
    H   -5.8310000000       -1.4130000000        1.5250000000     
    C   -4.8700000000       -3.0270000000        0.4550000000     
    H   -3.8680000000       -3.3030000000        0.0960000000     
    H   -5.1490000000       -3.8040000000        1.1820000000     
    C   -5.8650000000       -3.1680000000       -0.7500000000     
    O   -6.7090000000       -2.2420000000       -0.9020000000     
    O   -5.7160000000       -4.2180000000       -1.4320000000     
    O   -5.1820000000        1.2480000000        1.6340000000     
    H   -4.9640000000        2.0990000000        2.0360000000     

5-HETE_resp.gesp

5-HETE_resp.gesp


